test/test_files/validation_tests/case6495rte.m
function mpc = case6495rte
%CASE6495RTE  AC Power flow data for French system.
%   Please see CASEFORMAT for details on the case file format.
%
%   This case accurately represents the size and complexity of French
%   very high voltage and high voltage transmission network.
%   These data are snapshots of French VHV+HV grid in 2013.
%   These data can be used to validate mathematical methods and tools.
%   These data should NOT be used for operation
%   nor planning of the French or European grids.
%
%   When publishing results based on this data, please cite:
%
%     C. Josz, S. Fliscounakis, J. Maeght, and P. Panciatici, "AC Power Flow
%     Data in MATPOWER and QCQP Format: iTesla, RTE Snapshots, and PEGASE"
%     http://arxiv.org/abs/1603.01533
%
%   Contacts:
%     Cédric Josz, Stéphane Fliscounakis, Jean Maeght, Patrick Panciatici
%     firstname.lastname@rte-france.com
%     Réseau de Transport d'Electricité (French Transmission System Operator)
%     Département Expertise Système, Immeuble "Le Colbert"
%     9 rue de la Porte de Buc, 78000 Versailles Cedex, France
%
%   March 3rd, 2016

%   MATPOWER
%   Copyright (c) 2016 by Cédric Josz, Stéphane Fliscounakis, Jean Maeght,
%   and Patrick Panciatici
%   Licensed under the Creative Commons Attribution 4.0 International license,
%   http://creativecommons.org/licenses/by/4.0/

%% MATPOWER Case Format : Version 2
mpc.version = '2';

%%-----  Power Flow Data  -----%%
%% system MVA base
mpc.baseMVA = 100;

%% bus data
%    bus_i    type    Pd    Qd    Gs    Bs    area    Vm    Va    baseKV    zone    Vmax    Vmin
mpc.bus = [
    1    1    0    0    0    0    1    0.979893048    -10.3768261    45    1    1    0.888889;
    2    1    0    0    0    0    1    1.03715026    -10.3554691    63    1    1.06349    0.936508;
    3    1    13.1    2.6    0    0    1    1.02433173    -12.8534061    63    1    1.07937    0.952381;
    4    1    49.2    3.4    0    0    1    1.03921351    -24.1153288    90    1    1.08889    0.933333;
    5    1    11    0    0    0    1    1.01936346    -52.5501319    63    1    1.06349    0.952381;
    6    1    13    4.3    0    0    1    1.02004802    -21.2483732    63    1    1.07937    0.920635;
    7    1    1.2    0.7    0    0    1    1.04792706    -23.3284608    63    1    1.07937    0.920635;
    8    1    24.6    13.1    0    0    1    1.04830196    -17.3700741    225    1    1.08889    0.888889;
    9    1    14.9    0    0    0    1    1.04575179    -17.7128995    63    1    1.06349    0.936508;
    10    1    0    0    0    0    1    1.03364016    -22.9721855    90    1    1.07778    0.922222;
    11    1    30.7    -2    0    0    1    1.03363994    -22.972183    90    1    1.07778    0.922222;
    12    1    0    0    0    0    1    1.01664069    1.01323791    63    1    1.07937    0.952381;
    13    1    0    0    0    0    1    1.05890193    -3.64645757    380    1    1.10263    1.05313;
    14    1    52.7    13.4    0    30.4    1    1.0671468    -31.2262094    90    1    1.07778    0.977778;
    15    1    0    0    0    0    1    1.03133856    -23.3422562    63    1    1.07937    0.920635;
    16    1    12.5    -0.6    0    0    1    1.03134679    -29.0313207    63    1    1.07937    0.920635;
    17    1    10.9    0.2    0    0    1    1.04794596    -31.3481823    90    1    1.06667    0.977778;
    18    1    0    0    0    0    1    0.936377787    -5.06544702    45    1    1    0.888889;
    19    1    0    0    0    0    1    1.03087171    -20.3196785    63    1    1.06349    0.936508;
    20    1    3.9    -18.2    0    0    1    0.937158468    -5.10023226    45    1    1    0.888889;
    21    1    6.3    -2.5    0    0    1    1.03894873    -19.7127085    90    1    1.06667    0.977778;
    22    1    17.3    0.8    0    0    1    1.02417072    -13.0166794    63    1    1.07937    0.952381;
    23    1    24.4    1.4    0    0    1    1.01426878    -10.2175532    63    1    1.06349    0.936508;
    24    1    16.7    -1.3    0    0    1    1.04175688    -22.5362878    90    1    1.11111    0.955556;
    25    1    51.1    -4    0    0    1    1.07638926    -18.9285736    90    1    1.1    0.944444;
    26    1    32.4    5    0    0    1    1.0352752    -25.1015831    90    1    1.06667    0.977778;
    27    1    0    0    0    0    1    1.06660839    -20.5147974    225    1    1.08444    1.00444;
    28    1    0    -0.2    0    0    1    1.03351276    -20.2158954    63    1    1.07937    0.952381;
    29    1    75    9.3    0    0    1    0.993975162    -23.136013    63    1    1.06349    0.968254;
    30    1    37.6    3.3    0    0    1    1.03314256    -23.1778346    90    1    1.08889    0.933333;
    31    1    0    0    0    0    1    1.03625024    -8.99316829    63    1    1.06349    0.936508;
    32    1    0    0    0    0    1    1.04470302    -3.80682716    150    1    1.10667    0.9;
    33    1    0    0    0    0    1    1.05413664    -6.21339632    225    1    1.08889    0.933333;
    34    1    0    0    0    0    1    1.04983156    -5.54355372    225    1    1.08889    0.933333;
    35    1    0    0    0    0    1    1.07133358    -4.99227828    380    1    1.10526    1.03947;
    36    1    0    0    0    0    1    1.07322038    -3.90267037    380    1    1.10526    1.03947;
    37    1    2.4    4.7    0    0    1    1.01508935    -25.6290612    63    1    1.07937    0.920635;
    38    1    8    3    0    0    1    1.03528191    -20.7803563    63    1    1.09524    0.936508;
    39    1    40.6    -4.9    0    0    1    1.0138152    -38.8457623    90    1    1.07778    0.977778;
    40    1    34.7    5.1    0    0    1    1.05527447    -29.4760069    90    1    1.07778    0.977778;
    41    1    0    0    0    0    1    1.07410025    -25.8455379    225    1    1.09152    1.00444;
    42    1    0    0    0    0    1    1.12162006    4.48114191    63    1    1.12834    0.952381;
    43    1    3.3    2.7    0    0    1    1.04783898    -26.6714372    90    1    1.07778    0.977778;
    44    1    15.2    1.6    0    0    1    1.02768593    -49.8132016    63    1    1.06349    0.952381;
    45    1    3.8    0.8    0    0    1    1.02336375    -33.4018313    90    1    1.06667    0.977778;
    46    1    0    0    0    0    1    1.03292446    -15.1098515    63    1    1.06349    0.936508;
    47    2    0    0    0    0    1    1.027    -12.083344    63    1    1.06349    0.936508;
    48    1    38.6    3.9    0    0    1    1.03526823    -23.9652248    90    1    1.07778    0.922222;
    49    1    9.9    -2.6    0    0    1    1.03702466    -15.8386251    63    1    1.06349    0.936508;
    50    1    0    0    0    0    1    1.07071557    -13.4433142    63    1    1.07458    0.936508;
    51    1    0    0    0    0    1    1.05549555    -8.72688394    225    1    1.08889    0.933333;
    52    1    8    3.5    0    0    1    1.03612192    -34.8372976    90    1    1.06667    0.977778;
    53    1    0.1    -1.2    0    0    1    1.00766185    -27.119197    63    1    1.04762    0.952381;
    54    1    -0.6    1.2    0    0    1    1.03886174    -17.8087968    90    1    1.06667    0.977778;
    55    1    49    11.3    0    0    1    1.07439337    -28.5325781    225    1    1.08991    1.00444;
    56    1    78.6    22.5    0    0    1    1.06403386    -24.7163715    225    1    1.08889    1.00444;
    57    2    0    0    0    0    1    1.061    -19.0743248    63    1    1.07937    0.920635;
    58    1    146.7    32.5    0    0    1    1.07422414    -28.5476197    225    1    1.08975    1.00444;
    59    1    5.1    0.4    0    0    1    1.04830263    -11.1695545    63    1    1.07937    0.952381;
    60    1    0    0    0    0    1    1.03839799    -5.55113533    63    1    1.07937    0.952381;
    61    1    41.4    11.6    0    0    1    1.04122846    -7.53885721    63    1    1.07937    0.952381;
    62    1    0    0    0    0    1    1.02509397    -5.66246789    63    1    1.07937    0.952381;
    63    1    15.8    2    0    0    1    1.01103702    0.0424383585    63    1    1.07937    0.952381;
    64    1    64.3    5.4    0    0    1    1.06588036    -16.5426802    225    1    1.08889    0.888889;
    65    1    12    2.9    0    0    1    1.05154171    -8.12705692    63    1    1.07937    0.952381;
    66    1    14.4    -6.8    0    0    1    1.0416174    -24.3594319    63    1    1.06349    0.936508;
    67    1    1    0    0    0    1    1.04174355    -20.4532918    63    1    1.07937    0.920635;
    68    1    48.7    3.8    0    0    1    1.02271664    -15.0424467    63    1    1.06349    0.936508;
    69    1    17.3    -1.6    0    0    1    1.0446944    -53.9257484    63    1    1.06349    0.952381;
    70    1    11.7    3.5    0    0    1    1.0211168    1.75224351    63    1    1.07937    0.952381;
    71    1    68.8    17.2    0    0    1    1.02187174    -27.6353903    63    1    1.04762    0.952381;
    72    1    0    0    0    0    1    1.07905772    -20.4454849    225    1    1.08892    1.00444;
    73    1    0    0    0    0    1    1.07905853    -20.4447201    225    1    1.08892    1.00444;
    74    1    53.3    -8.7    0    0    1    1.06637837    -16.3923304    225    1    1.08889    0.888889;
    75    1    25    1.6    0    0    1    1.04842048    -21.1820269    90    1    1.06667    0.977778;
    76    1    9    0.7    0    0    1    1.07517032    3.47900906    225    1    1.08889    0.986667;
    77    1    40.8    -1.5    0    0    1    1.02800455    -16.3349876    63    1    1.06349    0.936508;
    78    1    0    0    0    0    1    1.03831897    -26.3244184    63    1    1.07937    0.920635;
    79    1    0    0    0    0    1    1.01089841    -26.183276    63    1    1.04762    0.952381;
    80    1    34.6    10.4    0    0    1    1.04923048    -25.848135    225    1    1.08889    1.00444;
    81    1    34.6    9    0    0    1    1.04924992    -25.8480644    225    1    1.08889    1.00444;
    82    1    11.6    -0.2    0    0    1    1.0384376    -16.7259604    63    1    1.06349    0.936508;
    83    1    92.4    64.5    0    0    1    1.05946458    -26.2942368    225    1    1.08889    1.00444;
    84    1    1.4    -0.2    0    0    1    1.02536595    -12.5330646    63    1    1.06349    0.936508;
    85    1    1.8    -2    0    0    1    1.04847454    -16.0537832    63    1    1.06568    0.936508;
    86    1    44.9    3.7    0    0    1    1.03240006    -42.3544522    90    1    1.06667    0.977778;
    87    1    0    0    0    0    1    1.02476015    0.189234452    63    1    1.07937    0.952381;
    88    1    15.9    2    0    0    1    1.03992315    -18.4990468    63    1    1.06349    0.936508;
    89    1    25.7    0.4    0    0    1    1.04374964    -29.2142493    90    1    1.07778    0.977778;
    90    1    0.4    -2.3    0    0    1    0.941141294    -5.76927592    45    1    1    0.888889;
    91    1    0    0    0    0    1    0.936377787    -5.06544702    45    1    1    0.888889;
    92    1    31.6    3.2    0    0    1    1.01482002    -18.9752952    63    1    1.06349    0.968254;
    93    1    2.2    -2.2    0    0    1    0.953435375    -7.72442804    45    1    1    0.888889;
    94    1    16.9    -4.6    0    0    1    1.04421444    -24.0559689    90    1    1.06667    0.977778;
    95    1    53.2    9.3    0    0    1    1.03697618    -34.730461    90    1    1.06667    0.977778;
    96    1    1.2    0.1    0    0    1    1.05121477    -8.32668915    63    1    1.06349    0.936508;
    97    1    55    1.6    0    0    1    1.03680942    -23.8967173    63    1    1.07937    0.920635;
    98    1    7.7    -2.1    0    0    1    1.03306301    -19.305384    63    1    1.07937    0.952381;
    99    1    31.9    5    0    0    1    1.04753422    -7.21416459    63    1    1.07937    0.952381;
    100    1    59.9    8.9    0    0    1    1.02153611    -14.1138264    63    1    1.06349    0.936508;
    101    1    17.1    0.1    0    0    1    1.01462219    -13.3414563    63    1    1.06349    0.936508;
    102    2    0    0    0    0    1    1.03    -14.7394089    63    1    1.07937    0.952381;
    103    1    13    -1.4    0    0    1    1.04168196    -5.9124754    63    1    1.07937    0.952381;
    104    1    0    0    0    0    1    1.07376319    -3.24103261    225    1    1.08889    0.986667;
    105    1    37.7    0.8    0    0    1    1.0476859    -15.0454002    225    1    1.08889    0.888889;
    106    1    56.3    8.2    0    0    1    1.05807326    -19.8747997    90    1    1.1    0.944444;
    107    1    107.4    13.9    0    0    1    1.04740374    -28.4302924    225    1    1.08444    1.00889;
    108    1    12.7    -3.9    0    0    1    1.05194743    -24.8950195    90    1    1.07778    0.977778;
    109    1    60.8    4.1    0    0    1    1.04888746    -12.4858197    63    1    1.06837    0.936508;
    110    1    0    0    0    0    1    1.03317493    -8.83146225    225    1    1.08889    0.933333;
    111    1    37.3    -7.4    0    0    1    1.00285431    -21.3961828    63    1    1.06349    0.968254;
    112    1    0    0    0    0    1    1.02277458    -27.3291888    63    1    1.04762    0.952381;
    113    1    0    0    0    0    1    1.05428214    -23.8486593    225    1    1.08889    1.00444;
    114    1    12.9    0.7    0    0    1    1.04699471    -11.7135619    63    1    1.06349    0.936508;
    115    1    0    0    0    0    1    1.05891111    -3.64654095    380    1    1.10526    1.05263;
    116    1    0    0    0    0    1    1.05891111    -3.64654095    380    1    1.10526    1.05263;
    117    1    12.8    -2.1    0    0    1    1.02390906    -18.3028877    63    1    1.07937    0.952381;
    118    1    2    0.8    0    0    1    1.0508012    -20.8600636    90    1    1.06667    0.977778;
    119    1    40.3    3.7    0    0    1    1.01921766    -10.1804408    63    1    1.06349    0.936508;
    120    1    22    -2.3    0    0    1    1.01796489    -9.15733727    63    1    1.06349    0.936508;
    121    1    22.1    6.8    0    0    1    1.02368034    -25.6646161    63    1    1.07937    0.920635;
    122    2    0    0    0    0    1    1.038    -6.82675392    63    1    1.07937    0.952381;
    123    1    11    3.7    0    0    1    1.0359314    -6.95350482    63    1    1.07937    0.952381;
    124    1    8.9    -2.2    0    0    1    1.04547533    -27.3968828    90    1    1.06667    0.977778;
    125    1    11.6    -1.2    0    0    1    1.03277618    -13.6066251    63    1    1.07937    0.952381;
    126    1    0.4    0.3    0    0    1    1.05036369    -16.0236274    63    1    1.06349    0.936508;
    127    1    10.7    2.9    0    0    1    1.01431466    -30.0051866    63    1    1.04762    0.952381;
    128    1    13.4    5    0    0    1    1.02103073    -11.2979252    63    1    1.06349    0.968254;
    129    1    17    12.8    0    0    1    1.01953551    -9.55719239    63    1    1.06349    0.968254;
    130    1    0    0    0    0    1    1.04904375    -8.72555958    225    1    1.08444    1.00889;
    131    1    110.7    4.4    0    0    1    1.04723325    -16.2594936    225    1    1.08444    1.00889;
    132    2    9.4    0    0    0    1    1.068    -17.1797687    90    1    1.07778    0.922222;
    133    1    2.5    -0.1    0    0    1    0.985771946    -29.7504791    63    1    1.04762    0.952381;
    134    1    101.1    28.6    0    0    1    1.03201673    -26.5791626    225    1    1.08889    1.00444;
    135    1    0    0    0    0    1    1.07521745    -28.3621828    225    1    1.09072    1.00444;
    136    1    23.7    0.6    0    0    1    1.04368464    -37.7238495    90    1    1.07778    0.977778;
    137    2    8.1    -3.8    0    0    1    1.032    -12.8887764    63    1    1.06349    0.968254;
    138    1    0    0    0    0    1    1.05024707    -11.0755553    150    1    1.08    0.966667;
    139    1    15.7    4.1    0    0    1    1.03445563    -16.9390403    63    1    1.07937    0.920635;
    140    1    0    0    0    80    1    1.05987232    -13.2255136    225    1    1.08889    1;
    141    1    0    0    0    0    1    1.06803927    -9.79432415    380    1    1.10526    1.05263;
    142    1    12.5    1.1    0    0    1    1.05173173    -10.7314443    63    1    1.07937    0.952381;
    143    1    0    0    0    0    1    1.069667    -6.32556381    225    1    1.08889    0.986667;
    144    1    8.9    2.5    0    0    1    1.04615994    -20.7164905    90    1    1.11111    0.955556;
    145    1    24    7.7    0    0    1    1.06730872    -16.2828642    225    1    1.08889    0.968889;
    146    1    0    0    0    0    1    1.07893565    -13.2565255    380    1    1.10526    1;
    147    1    28    4.6    0    0    1    1.0460682    -14.7875757    63    1    1.06349    0.936508;
    148    1    6.6    1.5    0    0    1    1.04459985    -12.1022181    63    1    1.06349    0.936508;
    149    1    15.9    4.2    0    0    1    1.04278468    -33.9950246    90    1    1.06667    0.977778;
    150    1    48.4    1    0    0    1    1.0345059    -9.49190197    63    1    1.06349    0.936508;
    151    1    0    0    0    0    1    0.984485029    -24.2430812    63    1    1.06349    0.968254;
    152    1    42.6    9.4    0    7.7    1    0.984373819    -22.988736    63    1    1.06349    0.968254;
    153    1    26.9    -4.9    0    0    1    1.04181198    -10.7366802    63    1    1.06349    0.936508;
    154    1    0    0    0    0    1    1.06419161    -7.4594666    225    1    1.08889    0.933333;
    155    2    0    0    0    0    1    1.04606359    -21.140902    63    1    1.07937    0.920635;
    156    1    0    0    0    0    1    0.984438426    -24.2481413    63    1    1.06349    0.968254;
    157    1    -1.4    -2.3    0    0    1    0.93033985    -9.08222663    45    1    1    0.888889;
    158    2    0    0    0    0    1    0.963    -8.51156895    45    1    1    0.888889;
    159    1    0    0    0    0    1    1.03333219    -11.9335484    63    1    1.06349    0.936508;
    160    1    39.6    5.7    0    0    1    1.05587049    -13.5394301    225    1    1.08889    0.888889;
    161    1    40.6    10.8    0    0    1    1.05565475    -13.5407201    225    1    1.08889    0.888889;
    162    1    -0.1    -1.2    0    0    1    1.02219857    -24.9428349    90    1    1.06667    0.977778;
    163    1    0    0    0    0    1    1.02286077    -6.44251223    63    1    1.07937    0.952381;
    164    1    0    0    0    0    1    1.02286077    -6.44251223    63    1    1.07937    0.952381;
    165    1    12.5    6.7    0    0    1    1.07403518    -29.5511273    20    1    1.15    0.8;
    166    1    8.1    -0.3    0    0    1    1.04275466    -33.6436872    90    1    1.06667    0.977778;
    167    1    8.3    -2    0    0    1    1.04027647    -34.1112677    90    1    1.06667    0.977778;
    168    1    0    0    0    0    1    1.07409653    -29.5462001    225    1    1.08444    1.00444;
    169    1    9.1    -0.5    0    0    1    1.03640065    -29.6709628    90    1    1.06667    0.977778;
    170    1    78.8    13.1    0    0    1    1.04459062    -29.4504458    90    1    1.07778    0.977778;
    171    1    26.3    -0.9    0    30    1    1.05951006    -32.3605127    90    1    1.07921    0.977778;
    172    1    0    0    0    0    1    1.06881147    -28.1963472    225    1    1.08889    1.00444;
    173    1    28.9    8.2    0    0    1    1.07000053    -17.9396571    90    1    1.08889    0.933333;
    174    1    54.8    9.7    0    0    1    1.07058638    -20.6359947    90    1    1.11111    0.955556;
    175    1    0    0    0    0    1    1.02623844    -20.4004716    63    1    1.07937    0.920635;
    176    2    0    0    0    0    1    1.09807384    -18.170938    150    1    1.1    0.9;
    177    1    0    0    0    0    1    1.06740858    -26.5950591    225    1    1.08889    1.00444;
    178    1    0    0    0    0    1    1.0674088    -26.5950603    225    1    1.08889    1.00444;
    179    1    0    0    0    0    1    1.01447721    -29.9954878    63    1    1.04762    0.952381;
    180    1    0    0    0    0    1    1.0674073    -26.5950521    225    1    1.08889    1.00444;
    181    1    14.2    -5    0    0    1    1.04276469    -25.7016665    63    1    1.07937    0.920635;
    182    1    15    4.1    0    0    1    1.04407781    -9.36641029    63    1    1.06349    0.936508;
    183    1    6.2    -0.7    0    0    1    1.03668717    -19.3274022    63    1    1.07937    0.952381;
    184    1    4    1.4    0    0    1    1.06425697    -26.0579053    90    1    1.07778    0.977778;
    185    1    28.1    2.7    0    0    1    1.04327826    -11.5442269    63    1    1.07937    0.952381;
    186    1    0.4    1.3    0    0    1    1.0290045    -23.510342    90    1    1.06667    0.977778;
    187    2    0    0    0    0    1    1.05051182    -20.9900302    63    1    1.07937    0.920635;
    188    1    0    0    0    0    1    1.09615659    -19.2244145    63    1    1.10211    0.920635;
    189    1    16.4    2.1    0    0    1    1.03429537    -24.0858699    63    1    1.07937    0.920635;
    190    2    0    0    0    0    1    0.949967688    -6.96346435    45    1    1    0.888889;
    191    1    14.3    -1.2    0    0    1    1.03808607    -29.727828    90    1    1.06667    0.977778;
    192    1    7.2    -2    0    0    1    1.06203927    -19.6835663    63    1    1.07937    0.920635;
    193    1    -0.3    0.8    0    0    1    1.05393537    -24.3564537    225    1    1.08889    1.00444;
    194    2    0.7    -2.2    0    0    1    1.059    -24.4585786    63    1    1.07937    0.920635;
    195    1    0    0    0    0    1    1.05832148    -26.6696164    63    1    1.07545    0.952381;
    196    1    0    0    0    0    1    1.05832293    -26.669659    63    1    1.07546    0.952381;
    197    1    27.3    0.8    0    15    1    1.02026619    -31.8670207    63    1    1.07937    0.920635;
    198    1    10    -0.7    0    0    1    1.03635018    -21.1800518    63    1    1.07937    0.920635;
    199    1    11.4    1.5    0    0    1    1.02199189    -40.0182133    90    1    1.06667    0.977778;
    200    1    0    0    0    0    1    1.08301901    -22.2931995    225    1    1.08889    1;
...
];

%% generator data
%    bus    Pg    Qg    Qmax    Qmin    Vg    mBase    status    Pmax    Pmin    Pc1    Pc2    Qc1min    Qc1max    Qc2min    Qc2max    ramp_agc    ramp_10    ramp_30    ramp_q    apf
mpc.gen = [
    4    0    0    0    0    1.04    100    0    12    0    0    0    0    0    0    0    0    0    0    0    0;
    4    0    0    0    0    1.04    100    0    10    0    0    0    0    0    0    0    0    0    0    0    0;
    5    0    0    0    0    1.024    100    0    9.1    0    0    0    0    0    0    0    0    0    0    0    0;
    11    0.1    0    0    0    1.035    100    1    28    0    0    0    0    0    0    0    0    0    0    0    0;
    11    0    0    0    0    1.035    100    0    18    0    0    0    0    0    0    0    0    0    0    0    0;
    17    0    0    0    0    1.051    100    0    8.2    0    0    0    0    0    0    0    0    0    0    0    0;
    19    0    0    0    0    1.032    100    0    1.2    0    0    0    0    0    0    0    0    0    0    0    0;
    22    0    0    0    0    1.024    100    0    10    0    0    0    0    0    0    0    0    0    0    0    0;
    24    0    0    0    0    1.042    100    0    16.1    0    0    0    0    0    0    0    0    0    0    0    0;
    24    0    0    0    0    1.042    100    0    35.5    0    0    0    0    0    0    0    0    0    0    0    0;
    25    1.29    0    0    0    1.078    100    1    36    0    0    0    0    0    0    0    0    0    0    0    0;
    25    0    0    0    0    1.078    100    0    27.2    0    0    0    0    0    0    0    0    0    0    0    0;
    40    0    0    0    0    1.061    100    0    8    0    0    0    0    0    0    0    0    0    0    0    0;
    47    8.51    -10    9.5    -10    1.027    100    1    16    0    0    0    0    0    0    0    0    0    0    0    0;
    47    8.51    -10    9.5    -10    1.027    100    1    16    0    0    0    0    0    0    0    0    0    0    0    0;
    48    0    0    0    0    1.037    100    0    23    0    0    0    0    0    0    0    0    0    0    0    0;
    48    0    0    0    0    1.037    100    0    24    0    0    0    0    0    0    0    0    0    0    0    0;
    57    4.17    1    1    0.9    1.061    100    1    13    0    0    0    0    0    0    0    0    0    0    0    0;
    64    0    0    0    0    1.067    100    0    24    0    0    0    0    0    0    0    0    0    0    0    0;
    64    0    0    0    0    1.067    100    0    27.6    0    0    0    0    0    0    0    0    0    0    0    0;
    69    0    0    0    0    1.049    100    0    30.04    0    0    0    0    0    0    0    0    0    0    0    0;
    70    0    0    0    0    1.022    100    0    23    0    0    0    0    0    0    0    0    0    0    0    0;
    85    0.15    0    0    0    1.05    100    1    6.68    0    0    0    0    0    0    0    0    0    0    0    0;
    86    0    0    0    0    1.035    100    0    9.2    0    0    0    0    0    0    0    0    0    0    0    0;
    102    17.12    -8.03    21    -9    1.03    100    1    46    0    0    0    0    0    0    0    0    0    0    0    0;
    122    5.92    0.48    5    -2    1.038    100    1    12    0    0    0    0    0    0    0    0    0    0    0    0;
    124    0    0    0    0    1.047    100    0    9    0    0    0    0    0    0    0    0    0    0    0    0;
    125    1.11    0    0    0    1.034    100    1    26    0    0    0    0    0    0    0    0    0    0    0    0;
    125    0    0    0    0    1.034    100    0    12    0    0    0    0    0    0    0    0    0    0    0    0;
    132    12.21    1.67    3    -3    1.068    100    1    17    0    0    0    0    0    0    0    0    0    0    0    0;
    132    0    1    1    -1    1.068    100    0    4    0    0    0    0    0    0    0    0    0    0    0    0;
    132    0    1.67    3    -3    1.068    100    0    14    0    0    0    0    0    0    0    0    0    0    0    0;
    132    0    1.67    3    -3    1.068    100    0    14    0    0    0    0    0    0    0    0    0    0    0    0;
    137    0    0.25    0.8    -0.8    1.032    100    0    18    0    0    0    0    0    0    0    0    0    0    0    0;
    137    10.14    -0.55    0.8    -0.8    1.032    100    1    18    0    0    0    0    0    0    0    0    0    0    0    0;
    155    0    1.76    1.76    -1.76    1.05    100    0    5.3    0    0    0    0    0    0    0    0    0    0    0    0;
    158    8.2    2.26    10    -13    0.963    100    1    17.9    0    0    0    0    0    0    0    0    0    0    0    0;
    158    8.2    2.26    10    -13    0.963    100    1    17.9    0    0    0    0    0    0    0    0    0    0    0    0;
    176    0    2.01    10    -4    1.099    100    0    30    0    0    0    0    0    0    0    0    0    0    0    0;
    187    0    2.28    8    -8    1.079    100    0    11    0    0    0    0    0    0    0    0    0    0    0    0;
    187    0    2    2    -2    1.079    100    0    11    0    0    0    0    0    0    0    0    0    0    0    0;
    190    0    -0.23    14    -14    0.948    100    0    30    0    0    0    0    0    0    0    0    0    0    0    0;
    192    2.1    0    0    0    1.062    100    1    23.5    0    0    0    0    0    0    0    0    0    0    0    0;
    194    2.48    1    1    0.9    1.059    100    1    15    0    0    0    0    0    0    0    0    0    0    0    0;
    194    2.48    1    1    0.9    1.059    100    1    15    0    0    0    0    0    0    0    0    0    0    0    0;
    217    0    0    0    0    1.029    100    0    11.94    0    0    0    0    0    0    0    0    0    0    0    0;
    224    0    1.99    2    0    1.099    100    0    6    0    0    0    0    0    0    0    0    0    0    0    0;
    227    0    0    0    0    1.027    100    0    7.5    0    0    0    0    0    0    0    0    0    0    0    0;
    236    0    0    0    0    1.051    100    0    33.5    0    0    0    0    0    0    0    0    0    0    0    0;
    236    0    0    0    0    1.051    100    0    24.3    0    0    0    0    0    0    0    0    0    0    0    0;
    238    0    0    0    0    1.04    100    0    8    0    0    0    0    0    0    0    0    0    0    0    0;
    238    0    0    0    0    1.04    100    0    36    0    0    0    0    0    0    0    0    0    0    0    0;
    246    0    0    2    0    1.015    100    0    1    0    0    0    0    0    0    0    0    0    0    0    0;
    246    0    -0.18    10    -10    1.015    100    0    31    0    0    0    0    0    0    0    0    0    0    0    0;
    246    0    -0.18    10    -10    1.015    100    0    31    0    0    0    0    0    0    0    0    0    0    0    0;
    246    0    -0.18    10    -10    1.015    100    0    31    0    0    0    0    0    0    0    0    0    0    0    0;
    256    8.11    -5.68    10    -10    1.047    100    1    26    0    0    0    0    0    0    0    0    0    0    0    0;
    256    13.11    -5.68    10    -10    1.047    100    1    26    0    0    0    0    0    0    0    0    0    0    0    0;
    258    25.27    0.9    1    0.9    1.079    100    1    30    0    0    0    0    0    0    0    0    0    0    0    0;
    261    0    2    4    -4    1.047    100    0    8    0    0    0    0    0    0    0    0    0    0    0    0;
    269    0    0    0    0    1.009    100    0    12.6    0    0    0    0    0    0    0    0    0    0    0    0;
    282    0    -0.19    6.1    -6.2    1.015    100    0    11.6    0    0    0    0    0    0    0    0    0    0    0    0;
    295    0    0    0    0    1.055    100    0    25.3    0    0    0    0    0    0    0    0    0    0    0    0;
    296    5.04    0    0    0    1.02    100    1    12    0    0    0    0    0    0    0    0    0    0    0    0;
    305    0.15    -2.76    9    -9    1.053    100    1    15    0    0    0    0    0    0    0    0    0    0    0    0;
    312    2.19    0    0    0    1.022    100    1    25.8    0    0    0    0    0    0    0    0    0    0    0    0;
    312    8.19    0    0    0    1.022    100    1    49.6    0    0    0    0    0    0    0    0    0    0    0    0;
    317    0    0    0    0    1.064    100    0    0    -7    0    0    0    0    0    0    0    0    0    0    0;
    317    0    0    0    0    1.064    100    0    0    -7    0    0    0    0    0    0    0    0    0    0    0;
    319    0    0.1    0.1    -0.1    1.037    100    0    10.8    0    0    0    0    0    0    0    0    0    0    0    0;
    325    0    -0.04    4    -4    1.037    100    0    11    0    0    0    0    0    0    0    0    0    0    0    0;
    332    0    0.68    13    -9    1.034    100    0    25    0    0    0    0    0    0    0    0    0    0    0    0;
    333    0    4.58    13    -9    1.048    100    0    25    0    0    0    0    0    0    0    0    0    0    0    0;
    336    7.91    -0    5    -6    1.026    100    1    13    0    0    0    0    0    0    0    0    0    0    0    0;
    338    0    1.58    10    -10    1.078    100    0    21    0    0    0    0    0    0    0    0    0    0    0    0;
    338    0    0.1    0.1    -0.1    1.078    100    0    2    0    0    0    0    0    0    0    0    0    0    0    0;
    345    0    0    0    0    1.035    100    0    2.3    0    0    0    0    0    0    0    0    0    0    0    0;
    345    0.05    0    0    0    1.035    100    1    19.5    0    0    0    0    0    0    0    0    0    0    0    0;
    348    0    0    0    0    1.062    100    0    22    0    0    0    0    0    0    0    0    0    0    0    0;
    357    0    0    0    0    1.018    100    0    12    0    0    0    0    0    0    0    0    0    0    0    0;
    357    0    0    0    0    1.018    100    0    12    0    0    0    0    0    0    0    0    0    0    0    0;
    364    125.15    -1.03    59    -26    1.049    100    1    130    0    0    0    0    0    0    0    0    0    0    0    0;
    391    0    0    0    0    1.043    100    0    2.7    0    0    0    0    0    0    0    0    0    0    0    0;
    409    0    0.73    5    -5    1.033    100    0    18    0    0    0    0    0    0    0    0    0    0    0    0;
    411    0    0    0    0    1.038    100    0    10    0    0    0    0    0    0    0    0    0    0    0    0;
    411    0    0    0    0    1.038    100    0    11.5    0    0    0    0    0    0    0    0    0    0    0    0;
    431    2.06    0    0    0    1.062    100    1    12    0    0    0    0    0    0    0    0    0    0    0    0;
    440    0    1.45    10.96    -11.99    1.035    100    0    34.25    0    0    0    0    0    0    0    0    0    0    0    0;
    447    17.34    0.84    8    -9    0.999    100    1    25    0    0    0    0    0    0    0    0    0    0    0    0;
    462    0    0    0    0    1.038    100    0    2.4    0    0    0    0    0    0    0    0    0    0    0    0;
    462    0    0    0    0    1.038    100    0    16    0    0    0    0    0    0    0    0    0    0    0    0;
    464    4.27    0.25    6    -3    1.168    100    1    27    1    0    0    0    0    0    0    0    0    0    0    0;
    464    4.27    0.25    6    -3    1.168    100    1    27    1    0    0    0    0    0    0    0    0    0    0    0;
    466    0    0    19    -10    1.037    100    0    48    1    0    0    0    0    0    0    0    0    0    0    0;
    470    0    -0.57    6    -6    1.049    100    0    10    0    0    0    0    0    0    0    0    0    0    0    0;
    470    0    -3.08    5.4    -5.4    1.049    100    0    9    0    0    0    0    0    0    0    0    0    0    0    0;
    479    0    -0.09    17    -16    1.019    100    0    27    0    0    0    0    0    0    0    0    0    0    0    0;
    479    0    -0.09    17    -16    1.019    100    0    27    0    0    0    0    0    0    0    0    0    0    0    0;
    479    0    -0.09    17    -16    1.019    100    0    27    0    0    0    0    0    0    0    0    0    0    0    0;
    491    0    -0.75    8    -17    1.055    100    0    23.4    0    0    0    0    0    0    0    0    0    0    0    0;
    508    0    1.72    2    -2    1.029    100    0    4    0    0    0    0    0    0    0    0    0    0    0    0;
    519    0    0    0    0    1.007    100    0    10    0    0    0    0    0    0    0    0    0    0    0    0;
    520    0    0    0    0    1.042    100    0    12    0    0    0    0    0    0    0    0    0    0    0    0;
    530    1.87    0.06    4.8    -4.8    1.044    100    1    8    0    0    0    0    0    0    0    0    0    0    0    0;
    530    1.87    0.06    4.8    -4.8    1.044    100    1    8    0    0    0    0    0    0    0    0    0    0    0    0;
    530    1.87    0.06    4.8    -4.8    1.044    100    1    8    0    0    0    0    0    0    0    0    0    0    0    0;
    537    0    0    0    0    1.035    100    0    12    0    0    0    0    0    0    0    0    0    0    0    0;
    537    1.95    0    0    0    1.035    100    1    24    0    0    0    0    0    0    0    0    0    0    0    0;
    546    0    2    2    1.9    1.051    100    1    9    0    0    0    0    0    0    0    0    0    0    0    0;
    548    0    2    2    0    1.051    100    0    12    0    0    0    0    0    0    0    0    0    0    0    0;
    570    0    0    0    0    1.001    100    0    12    0    0    0    0    0    0    0    0    0    0    0    0;
    570    0    0    0    0    1.001    100    0    30    0    0    0    0    0    0    0    0    0    0    0    0;
    570    0    0    0    0    1.001    100    0    11.5    0    0    0    0    0    0    0    0    0    0    0    0;
    583    3.18    3.92    7    -4    1.021    100    1    16    0    0    0    0    0    0    0    0    0    0    0    0;
    585    0    0    0    0    0.995    100    0    9    0    0    0    0    0    0    0    0    0    0    0    0;
    586    0    4.61    5.7    -5.7    1.022    100    0    9.5    0    0    0    0    0    0    0    0    0    0    0    0;
    589    0    0.1    0.1    -0.1    1.03    100    0    1    0    0    0    0    0    0    0    0    0    0    0    0;
    593    0    1.34    10    -10    1.013    100    0    21    0    0    0    0    0    0    0    0    0    0    0    0;
    600    0    0.37    1    -1    1.03    100    0    6.1    0    0    0    0    0    0    0    0    0    0    0    0;
    610    39.12    -5.64    45    -45    1.028    100    1    45    0    0    0    0    0    0    0    0    0    0    0    0;
    610    0    -0.16    45    -45    1.028    100    0    45    0    0    0    0    0    0    0    0    0    0    0    0;
    612    0    0    0    0    1.024    100    0    12    0    0    0    0    0    0    0    0    0    0    0    0;
    612    0    0    0    0    1.024    100    0    12    0    0    0    0    0    0    0    0    0    0    0    0;
    612    0    0    0    0    1.024    100    0    12    0    0    0    0    0    0    0    0    0    0    0    0;
    613    0    0    0    0    1.022    100    0    35    0    0    0    0    0    0    0    0    0    0    0    0;
    613    0    0    0    0    1.022    100    0    11.5    0    0    0    0    0    0    0    0    0    0    0    0;
    624    -4.03    -8.3    8.3    -8.3    1.039    100    1    8.3    -8.3    0    0    0    0    0    0    0    0    0    0    0;
    633    0    -4.7    4    -4.7    1.039    100    0    7.3    0    0    0    0    0    0    0    0    0    0    0    0;
    636    0    0.5    7    0    1.003    100    0    15    0    0    0    0    0    0    0    0    0    0    0    0;
    636    0.97    4.5    7    0    1.003    100    1    15    0    0    0    0    0    0    0    0    0    0    0    0;
    641    160.75    -1.52    80    -75    1.104    100    1    239    0    0    0    0    0    0    0    0    0    0    0    0;
    652    0    1.32    7    0    1.062    100    0    7    0    0    0    0    0    0    0    0    0    0    0    0;
    670    0.14    0    0    0    1.033    100    1    12    0    0    0    0    0    0    0    0    0    0    0    0;
    670    0.14    0    0    0    1.033    100    1    12    0    0    0    0    0    0    0    0    0    0    0    0;
    671    0    0    0    0    1.036    100    0    7.5    0    0    0    0    0    0    0    0    0    0    0    0;
    671    1.13    0    0    0    1.036    100    1    24    0    0    0    0    0    0    0    0    0    0    0    0;
    679    0    0    0    0    1.016    100    0    6.6    0    0    0    0    0    0    0    0    0    0    0    0;
    680    0    0    0    0    1.059    100    0    12    0    0    0    0    0    0    0    0    0    0    0    0;
    684    2.24    1.87    6    -5    0.966    100    1    9    0    0    0    0    0    0    0    0    0    0    0    0;
    684    2.24    1.87    6    -5    0.966    100    1    9    0    0    0    0    0    0    0    0    0    0    0    0;
    684    0    1.87    8    -5    0.966    100    0    11    0    0    0    0    0    0    0    0    0    0    0    0;
    684    2.24    1.87    8    -5    0.966    100    1    11    0    0    0    0    0    0    0    0    0    0    0    0;
    695    0    0    0    0    1.05    100    0    32.35    0    0    0    0    0    0    0    0    0    0    0    0;
    695    0    0    0    0    1.05    100    0    12    0    0    0    0    0    0    0    0    0    0    0    0;
    695    0    0    0    0    1.05    100    0    21    0    0    0    0    0    0    0    0    0    0    0    0;
    699    27.82    -7.74    15    -17    1.014    100    1    37    0    0    0    0    0    0    0    0    0    0    0    0;
    699    26.84    -7.74    15    -17    1.014    100    1    37    0    0    0    0    0    0    0    0    0    0    0    0;
    698    26.02    -8.2    15    -15    1.012    100    1    37    0    0    0    0    0    0    0    0    0    0    0    0;
    698    28    -8.2    15    -15    1.012    100    1    37    0    0    0    0    0    0    0    0    0    0    0    0;
    697    27.99    -8.19    15    -17    1.012    100    1    37    0    0    0    0    0    0    0    0    0    0    0    0;
    697    25.02    -8.19    15    -17    1.012    100    1    37    0    0    0    0    0    0    0    0    0    0    0    0;
    705    0    2    2    -2    0.96    100    0    4    0    0    0    0    0    0    0    0    0    0    0    0;
    705    0    2.5    2.5    -2.5    0.96    100    0    4    0    0    0    0    0    0    0    0    0    0    0    0;
    705    0.93    3    3    -3    0.96    100    1    5.7    0    0    0    0    0    0    0    0    0    0    0    0;
    705    0    0.84    6    -5    0.96    100    0    8.5    0    0    0    0    0    0    0    0    0    0    0    0;
    732    0    0    0    0    1.039    100    0    19.5    0    0    0    0    0    0    0    0    0    0    0    0;
    733    27.26    -4.5    18    -18    1.007    100    1    39    0    0    0    0    0    0    0    0    0    0    0    0;
    734    0    0    0    0    1.006    100    0    11.5    0    0    0    0    0    0    0    0    0    0    0    0;
    734    0    0    0    0    1.006    100    0    32    0    0    0    0    0    0    0    0    0    0    0    0;
    736    0    0    0    0    1.049    100    0    12    0    0    0    0    0    0    0    0    0    0    0    0;
    736    1.13    0    0    0    1.049    100    1    32    0    0    0    0    0    0    0    0    0    0    0    0;
    737    0    0.1    0.1    -0.1    1.039    100    0    5    0    0    0    0    0    0    0    0    0    0    0    0;
    744    0    3.85    4.22    -3.7    1.019    100    0    6.7    0    0    0    0    0    0    0    0    0    0    0    0;
    744    0    4.02    4.39    -3    1.019    100    0    5.6    0    0    0    0    0    0    0    0    0    0    0    0;
    745    9.03    -8.28    15    -15    1.015    100    1    26.6    0    0    0    0    0    0    0    0    0    0    0    0;
    746    1.93    2    2    -2    1.023    100    1    7    1    0    0    0    0    0    0    0    0    0    0    0;
    751    0    -0.18    3    -3    1.015    100    0    5    -5    0    0    0    0    0    0    0    0    0    0    0;
    758    0    -2.68    8    -8    1.06    100    0    23.5    0    0    0    0    0    0    0    0    0    0    0    0;
    760    0    0    0    0    1.045    100    0    6    0    0    0    0    0    0    0    0    0    0    0    0;
    761    0    0    0    0    1.043    100    0    6    0    0    0    0    0    0    0    0    0    0    0    0;
    760    16.76    -8.42    10    -8.42    1.045    100    1    37.5    0    0    0    0    0    0    0    0    0    0    0    0;
    761    15.68    -5.67    10    -6    1.043    100    1    37.5    0    0    0    0    0    0    0    0    0    0    0    0;
    762    0    0.06    0.06    -0.06    0.596    100    0    0.6    0    0    0    0    0    0    0    0    0    0    0    0;
    762    0    1.73    2.61    -2.61    0.596    100    0    26.1    0    0    0    0    0    0    0    0    0    0    0    0;
    762    0    0.16    0.16    -0.16    0.596    100    0    1.6    0    0    0    0    0    0    0    0    0    0    0    0;
    762    0    0.11    0.11    -0.11    0.596    100    0    1.1    0    0    0    0    0    0    0    0    0    0    0    0;
    766    0    0    0    0    1.025    100    0    37.5    0    0    0    0    0    0    0    0    0    0    0    0;
    766    0    0    0    0    1.025    100    0    34    0    0    0    0    0    0    0    0    0    0    0    0;
    786    0    -0.79    26    -26    1.012    100    0    8    0    0    0    0    0    0    0    0    0    0    0    0;
    786    0    -0.79    26    -26    1.012    100    0    15    0    0    0    0    0    0    0    0    0    0    0    0;
    787    0    -0.71    26    -26    1.022    100    0    19    0    0    0    0    0    0    0    0    0    0    0    0;
    801    23.78    -7.69    15    -17    1.014    100    1    31    0    0    0    0    0    0    0    0    0    0    0    0;
    801    24.76    -7.69    15    -17    1.014    100    1    31    0    0    0    0    0    0    0    0    0    0    0    0;
    802    25.53    -6.29    15    -17    1.017    100    1    31    0    0    0    0    0    0    0    0    0    0    0    0;
    802    24.52    -6.29    15    -17    1.017    100    1    31    0    0    0    0    0    0    0    0    0    0    0    0;
    803    24.52    -7.3    15    -17    1.016    100    1    31    0    0    0    0    0    0    0    0    0    0    0    0;
    803    24.52    -7.3    15    -17    1.016    100    1    31    0    0    0    0    0    0    0    0    0    0    0    0;
    807    31.08    0    0    0    1.023    100    1    40.8    0    0    0    0    0    0    0    0    0    0    0    0;
    815    21.82    -0.33    6    -9    1.019    100    1    32    1    0    0    0    0    0    0    0    0    0    0    0;
    815    0    0    6    -9    1.019    100    0    32    1    0    0    0    0    0    0    0    0    0    0    0;
    816    22.35    -0.61    6    -9    1.019    100    1    32    1    0    0    0    0    0    0    0    0    0    0    0;
    816    22.35    -0.61    6    -9    1.019    100    1    32    1    0    0    0    0    0    0    0    0    0    0    0;
    816    20.35    -0.61    6    -9    1.019    100    1    32    1    0    0    0    0    0    0    0    0    0    0    0;
    816    22.35    -0.61    6    -9    1.019    100    1    32    1    0    0    0    0    0    0    0    0    0    0    0;
    826    0    1.48    3    -3    1.057    100    0    13    0    0    0    0    0    0    0    0    0    0    0    0;
    826    0    3    3    -3    1.057    100    0    7    0    0    0    0    0    0    0    0    0    0    0    0;
    829    0    0    0    0    1.058    100    0    2.4    0    0    0    0    0    0    0    0    0    0    0    0;
    830    6.55    1.61    10    -10    1.053    100    1    27    0    0    0    0    0    0    0    0    0    0    0    0;
    831    0    -0.33    10    -10    0.978    100    0    20    0    0    0    0    0    0    0    0    0    0    0    0;
    833    0    -0.46    3.14    -3.43    1.079    100    0    9.8    0    0    0    0    0    0    0    0    0    0    0    0;
...
];

%% branch data
%    fbus    tbus    r    x    b    rateA    rateB    rateC    ratio    angle    status    angmin    angmax
mpc.branch = [
    4639    1    0.005726    0.010482    0    0    0    0    1    0    1    0    0;
    5234    1    0.01284    0.025679    0    0    0    0    1    0    1    0    0;
    1676    2    0.005799    0.010615    0.0075    0    0    0    1    0    1    0    0;
    1667    3    0.134039    0.309398    0.0035    0    0    0    1    0    1    0    0;
    2296    3    0.049131    0.133283    0.0015    0    0    0    1    0    1    0    0;
    695    4    0.025926    0.109136    0.0002    0    0    0    1    0    1    0    0;
    3931    4    0.05    0.126914    0.0006    0    0    0    1    0    1    0    0;
    5036    4    0.02321    0.097407    0.0016    0    0    0    1    0    1    0    0;
    4405    5    0.040564    0.113631    0.0013    0    0    0    1    0    1    0    0;
    2772    6    0.006047    0.020912    0.0222    0    0    0    1    0    1    0    0;
    2773    7    0.012472    0.032099    0.0061    0    0    0    1    0    1    0    0;
    2459    8    0.002607    0.017462    0.0324    540    540    540    1    0    1    0    0;
    470    9    0.053893    0.14258    0.0017    0    0    0    1    0    1    0    0;
    11    10    0.000247    0.001235    0.0005    0    0    0    1    0    1    0    0;
    11    10    0.000247    0.001235    0.0002    0    0    0    1    0    1    0    0;
    30    11    0.039753    0.100988    0.0047    0    0    0    1    0    1    0    0;
    2922    11    0.037654    0.096173    0.001    0    0    0    1    0    1    0    0;
    2174    12    0.014613    0.060721    0.0008    0    0    0    1    0    1    0    0;
    4009    12    0.034064    0.121139    0.0015    0    0    0    1    0    1    0    0;
    4011    12    0.000242    0.000442    0.0004    0    0    0    1    0    1    0    0;
    115    13    2.1e-05    0.000125    0.1386    737    737    737    1    0    1    0    0;
    2330    13    0.000145    0.001877    0.0635    2487    2487    2487    1    0    1    0    0;
    4569    13    0.000319    0.003234    0.0838    1841    1841    1841    1    0    1    0    0;
    116    13    2.1e-05    0.000125    0.1386    737    737    737    1    0    1    0    0;
    1220    14    0.04    0.134198    0.0274    0    0    0    1    0    1    0    0;
    2867    14    0.012222    0.052346    0.0026    0    0    0    1    0    1    0    0;
    4587    14    0.007284    0.045432    0.0024    0    0    0    1    0    1    0    0;
    4945    14    0.059963    0.154222    0.0236    0    0    0    1    0    1    0    0;
    5220    14    0.018025    0.110988    0.0073    0    0    0    1    0    1    0    0;
    2867    14    0.012222    0.052593    0.0032    0    0    0    1    0    1    0    0;
    4587    14    0.007284    0.044938    0.0024    0    0    0    1    0    1    0    0;
    2899    15    0.037541    0.100529    0.0011    0    0    0    1    0    1    0    0;
    4116    15    0.090199    0.211388    0.0023    0    0    0    1    0    1    0    0;
    4447    15    0.09801    0.267574    0    0    0    0    1    0    1    0    0;
    249    16    0.071806    0.191484    0.0019    0    0    0    1    0    1    0    0;
    337    16    0.119174    0.284958    0.0044    0    0    0    1    0    1    0    0;
    5824    17    0.022346    0.061111    0.0029    0    0    0    1    0    1    0    0;
    3719    18    0.009383    0.019753    0    0    0    0    1    0    1    0    0;
    5084    19    0.000252    0.000504    0    0    0    0    1    0    1    0    0;
    3719    20    0.001975    0.004444    0    0    0    0    1    0    1    0    0;
    1349    21    0.036296    0.099012    0.0045    0    0    0    1    0    1    0    0;
    1592    21    0.032716    0.089136    0.0057    0    0    0    1    0    1    0    0;
    1837    22    0.138574    0.351474    0.0058    0    0    0    1    0    1    0    0;
    5013    22    0.094407    0.210456    0.0044    0    0    0    1    0    1    0    0;
    1152    23    0.047115    0.117158    0.001    0    0    0    1    0    1    0    0;
    2696    23    0.039557    0.120937    0.0132    0    0    0    1    0    1    0    0;
    3418    23    0.022676    0.062484    0.0007    0    0    0    1    0    1    0    0;
    144    24    0.064568    0.16716    0.0113    0    0    0    1    0    1    0    0;
    1277    24    0.048605    0.128481    0.0062    0    0    0    1    0    1    0    0;
    490    25    0.004815    0.02963    0.0016    0    0    0    1    0    1    0    0;
    2086    25    0.007309    0.04463    0.0073    0    0    0    1    0    1    0    0;
    612    26    0.034321    0.145802    0.0073    0    0    0    1    0    1    0    0;
    1860    26    0.004815    0.009753    0.0005    0    0    0    1    0    1    0    0;
    2595    26    0.049012    0.133704    0.0063    0    0    0    1    0    1    0    0;
    2915    26    0.04642    0.126543    0.0058    0    0    0    1    0    1    0    0;
    3332    26    0.046296    0.125926    0.006    0    0    0    1    0    1    0    0;
    4624    26    0.053704    0.136753    0.0065    0    0    0    1    0    1    0    0;
    2915    26    0.03358    0.120988    0.0062    0    0    0    1    0    1    0    0;
    536    27    0.006163    0.041067    0.0759    446    446    446    1    0    1    0    0;
    2343    27    0.000652    0.004369    0.0081    558    558    558    1    0    1    0    0;
    2677    28    0.050945    0.131922    0.0015    0    0    0    1    0    1    0    0;
    3884    28    0.058781    0.149005    0.0017    0    0    0    1    0    1    0    0;
    2880    29    0.067019    0.137566    0.0037    0    0    0    1    0    1    0    0;
    3314    29    0.032754    0.088939    0.0039    0    0    0    1    0    1    0    0;
    3314    29    0.030184    0.080096    0.0053    0    0    0    1    0    1    0    0;
    144    30    0.066049    0.187778    0.0099    0    0    0    1    0    1    0    0;
    1548    30    0.065062    0.133704    0.0062    0    0    0    1    0    1    0    0;
    4831    30    0.041728    0.106049    0.005    0    0    0    1    0    1    0    0;
    150    31    0.009574    0.03875    0.0114    0    0    0    1    0    1    0    0;
    3155    31    0.000171    0.000313    0.0002    0    0    0    1    0    1    0    0;
    3684    31    0.034266    0.09423    0.001    0    0    0    1    0    1    0    0;
    4733    31    0.006803    0.028219    0    0    0    0    1    0    1    0    0;
    150    31    0.008566    0.037541    0.0121    0    0    0    1    0    1    0    0;
    3721    32    0.009733    0.034089    0.0185    0    0    0    1    0    1    0    0;
    366    34    0.000277    0.002015    0.003    288    288    288    1    0    1    0    0;
    1012    33    0.00881    0.033995    0.0607    289    289    289    1    0    1    0    0;
    1153    33    0.004642    0.019832    0.0354    255    255    255    1    0    1    0    0;
    2573    34    0.008861    0.03506    0.0623    288    288    288    1    0    1    0    0;
    2697    34    0.006993    0.032869    0.0557    255    255    255    1    0    1    0    0;
    4738    33    0.002173    0.008731    0.0152    0    0    0    1    0    1    0    0;
    4848    34    0.00077    0.003121    0.0051    0    0    0    1    0    1    0    0;
    5661    33    0.004109    0.016138    0.0284    288    288    288    1    0    1    0    0;
    368    35    8.3e-05    0.000907    0.0202    1034    1034    1034    1    0    1    0    0;
    1104    35    0.000552    0.006726    0.0939    1786    1786    1786    1    0    1    0    0;
    2143    35    0.000512    0.008012    0.2455    2462    2462    2462    1    0    1    0    0;
    3128    35    0.001107    0.00918    0.1906    1644    1644    1644    1    0    1    0    0;
    367    36    6.2e-05    0.000741    0.0173    1095    1095    1095    1    0    1    0    0;
    2143    35    0.000512    0.008019    0.2455    2462    2462    2462    1    0    1    0    0;
    2143    36    0.001153    0.013123    0.1841    1433    1433    1433    1    0    1    0    0;
    5219    37    0.055933    0.120685    0.0013    0    0    0    1    0    1    0    0;
    5505    37    0.039053    0.084404    0.001    0    0    0    1    0    1    0    0;
    725    38    0.00252    0.006551    0.0001    0    0    0    1    0    1    0    0;
    1224    39    0.009877    0.042222    0.0021    0    0    0    1    0    1    0    0;
    5799    39    0.024815    0.063086    0.0029    0    0    0    1    0    1    0    0;
    1224    39    0.009877    0.042222    0.0021    0    0    0    1    0    1    0    0;
    2244    40    0.056173    0.142593    0.0066    0    0    0    1    0    1    0    0;
    4587    40    0.034444    0.109012    0.0076    0    0    0    1    0    1    0    0;
    430    41    0.000158    0.000672    0.0719    331    331    331    1    0    1    0    0;
    3945    41    4.5e-05    8.9e-05    0.002    268    268    268    1    0    1    0    0;
    1479    42    0.01096    0.020063    0.009    0    0    0    1    0    1    0    0;
    2758    42    0.002268    0.008818    0.0099    0    0    0    1    0    1    0    0;
    2717    43    0.001481    0.006296    0.0039    0    0    0    1    0    1    0    0;
    3481    44    0.050617    0.137012    0.009    0    0    0    1    0    1    0    0;
    4314    44    0.074326    0.194507    0.0021    0    0    0    1    0    1    0    0;
    5087    45    0.000247    0.000741    0    0    0    0    1    0    1    0    0;
    1080    46    0.049131    0.134039    0.001    0    0    0    1    0    1    0    0;
    2187    46    0.033258    0.090955    0.001    0    0    0    1    0    1    0    0;
    3298    46    0.067437    0.123442    0.001    0    0    0    1    0    1    0    0;
    1080    47    0.037289    0.118166    0.001    0    0    0    1    0    1    0    0;
    5353    48    0.021358    0.057037    0.0005    0    0    0    1    0    1    0    0;
    1218    49    0.071303    0.180902    0.0021    0    0    0    1    0    1    0    0;
    2338    49    0.071554    0.18191    0.0021    0    0    0    1    0    1    0    0;
    470    50    0.028193    0.104535    0.0013    0    0    0    1    0    1    0    0;
    1670    50    0.055404    0.171429    0.01    0    0    0    1    0    1    0    0;
    3546    50    0.010834    0.071554    0.001    0    0    0    1    0    1    0    0;
    4621    50    0.013857    0.030234    0.0003    0    0    0    1    0    1    0    0;
    3546    50    0.011414    0.070648    0.0009    0    0    0    1    0    1    0    0;
    4621    50    0.013757    0.030108    0.0003    0    0    0    1    0    1    0    0;
    1191    51    0.00478    0.028622    0.0547    455    455    455    1    0    1    0    0;
    1192    51    0.00478    0.028583    0.0547    455    455    455    1    0    1    0    0;
    166    52    0.01284    0.032716    0.0015    0    0    0    1    0    1    0    0;
    5479    52    0.014198    0.036049    0.0016    0    0    0    1    0    1    0    0;
    3342    53    0.005291    0.021668    0.0003    0    0    0    1    0    1    0    0;
    2762    54    0.01358    0.047654    0.0023    0    0    0    1    0    1    0    0;
    373    55    0.000257    0.000514    0.0294    0    0    0    1    0    1    0    0;
    2686    56    0.000257    0.002153    0.2147    452    452    452    1    0    1    0    0;
    3420    56    0.000277    0.000869    0.0931    481    481    481    1    0    1    0    0;
    5088    57    0.000756    0.00252    0    0    0    0    1    0    1    0    0;
    3383    58    0.000237    0.00083    0.1863    268    268    268    1    0    1    0    0;
    3558    58    0.000178    0.000612    0.1377    268    268    268    1    0    1    0    0;
    142    59    0.030486    0.076342    0.002    0    0    0    1    0    1    0    0;
    1646    59    0.011086    0.024691    0.0015    0    0    0    1    0    1    0    0;
    2469    60    0.044344    0.170572    0.0021    0    0    0    1    0    1    0    0;
    3518    60    0.036709    0.151776    0.0017    0    0    0    1    0    1    0    0;
    2221    61    0.017788    0.048551    0.0006    0    0    0    1    0    1    0    0;
    2627    61    0.057521    0.145251    0.0017    0    0    0    1    0    1    0    0;
    2041    62    0.014109    0.057949    0.0029    0    0    0    1    0    1    0    0;
    2943    62    0.007055    0.02973    0.0014    0    0    0    1    0    1    0    0;
    371    63    0.024263    0.065911    0.0007    0    0    0    1    0    1    0    0;
    3074    63    0.020912    0.059209    0.0016    0    0    0    1    0    1    0    0;
    145    64    0.002568    0.011753    0.0203    424    424    424    1    0    1    0    0;
    5098    64    0.002568    0.011615    0.0228    290    290    290    1    0    1    0    0;
    4599    65    0.006299    0.033585    0.0599    0    0    0    1    0    1    0    0;
    4599    65    0.006299    0.033661    0.06    0    0    0    1    0    1    0    0;
    1541    66    0.102293    0.226757    0.0025    0    0    0    1    0    1    0    0;
...